  Page 1                                    Wed Aug 31 17:00:11 2011

  ******************************************************************
  *                           E P A N E T                          *
  *                   Hydraulic and Water Quality                  *
  *                   Analysis for Pipe Networks                   *
  *                         Version 2.00.12                        *
  ******************************************************************
  
  Analysis begun Wed Aug 31 17:00:11 2011

  WARNING: Negative pressures at 0:00:00 hrs.
  WARNING: Node 1390 disconnected at 0:00:00 hrs
  WARNING: Node 1598 disconnected at 0:00:00 hrs
  WARNING: System disconnected because of Link 130
  WARNING: Negative pressures at 1:00:00 hrs.
  WARNING: Node 1390 disconnected at 1:00:00 hrs
  WARNING: Node 1598 disconnected at 1:00:00 hrs
  WARNING: System disconnected because of Link 130
  WARNING: Negative pressures at 2:00:00 hrs.
  WARNING: Node 1390 disconnected at 2:00:00 hrs
  WARNING: Node 1598 disconnected at 2:00:00 hrs
  WARNING: System disconnected because of Link 130
  WARNING: Negative pressures at 3:00:00 hrs.
  WARNING: Node 1390 disconnected at 3:00:00 hrs
  WARNING: Node 1598 disconnected at 3:00:00 hrs
  WARNING: System disconnected because of Link 130
  WARNING: Negative pressures at 3:00:00 hrs.
  WARNING: Node 1390 disconnected at 3:00:00 hrs
  WARNING: Node 1598 disconnected at 3:00:00 hrs
  WARNING: System disconnected because of Link 130
  
  WARNING: Negative pressures at 4:00:00 hrs.
  WARNING: Node 1390 disconnected at 4:00:00 hrs
  WARNING: Node 1598 disconnected at 4:00:00 hrs
  WARNING: System disconnected because of Link 130
  WARNING: Negative pressures at 5:00:00 hrs.
  WARNING: Node 1390 disconnected at 5:00:00 hrs
  WARNING: Node 1598 disconnected at 5:00:00 hrs
  WARNING: System disconnected because of Link 130
  WARNING: Negative pressures at 6:00:00 hrs.
  WARNING: Node 1390 disconnected at 6:00:00 hrs
  WARNING: Node 1598 disconnected at 6:00:00 hrs
  WARNING: System disconnected because of Link 130
  WARNING: Negative pressures at 7:00:00 hrs.
  WARNING: Node 1390 disconnected at 7:00:00 hrs
  WARNING: Node 1598 disconnected at 7:00:00 hrs
  WARNING: System disconnected because of Link 130
  WARNING: Negative pressures at 8:00:00 hrs.
  WARNING: Node 1390 disconnected at 8:00:00 hrs
  WARNING: Node 1598 disconnected at 8:00:00 hrs
  WARNING: System disconnected because of Link 130
  WARNING: Negative pressures at 9:00:00 hrs.
  WARNING: Node 1390 disconnected at 9:00:00 hrs
  WARNING: Node 1598 disconnected at 9:00:00 hrs
  WARNING: System disconnected because of Link 130
  WARNING: Negative pressures at 10:00:00 hrs.
  WARNING: Node 1390 disconnected at 10:00:00 hrs
  WARNING: Node 1598 disconnected at 10:00:00 hrs
  WARNING: System disconnected because of Link 130
  WARNING: Negative pressures at 10:00:00 hrs.
  WARNING: Node 1390 disconnected at 10:00:00 hrs
  WARNING: Node 1598 disconnected at 10:00:00 hrs
  WARNING: System disconnected because of Link 130
  
  WARNING: Negative pressures at 11:00:00 hrs.
  WARNING: Node 1390 disconnected at 11:00:00 hrs
  WARNING: Node 1598 disconnected at 11:00:00 hrs
  WARNING: System disconnected because of Link 130
  WARNING: Negative pressures at 12:00:00 hrs.
  WARNING: Node 1390 disconnected at 12:00:00 hrs
  WARNING: Node 1598 disconnected at 12:00:00 hrs
  WARNING: System disconnected because of Link 130
  WARNING: Negative pressures at 13:00:00 hrs.
  WARNING: Node 1390 disconnected at 13:00:00 hrs
  WARNING: Node 1598 disconnected at 13:00:00 hrs
  WARNING: System disconnected because of Link 130
  WARNING: Negative pressures at 14:00:00 hrs.
  WARNING: Node 1390 disconnected at 14:00:00 hrs
  WARNING: Node 1598 disconnected at 14:00:00 hrs
  WARNING: System disconnected because of Link 130
  WARNING: Negative pressures at 15:00:00 hrs.
  WARNING: Node 1390 disconnected at 15:00:00 hrs
  WARNING: Node 1598 disconnected at 15:00:00 hrs
  WARNING: System disconnected because of Link 130
  WARNING: Negative pressures at 16:00:00 hrs.
  WARNING: Node 1390 disconnected at 16:00:00 hrs
  WARNING: Node 1598 disconnected at 16:00:00 hrs
  WARNING: System disconnected because of Link 130
  WARNING: Negative pressures at 16:00:00 hrs.
  WARNING: Node 1390 disconnected at 16:00:00 hrs
  WARNING: Node 1598 disconnected at 16:00:00 hrs
  WARNING: System disconnected because of Link 130
  
  WARNING: Negative pressures at 17:00:00 hrs.
  WARNING: Node 1390 disconnected at 17:00:00 hrs
  WARNING: Node 1598 disconnected at 17:00:00 hrs
  WARNING: System disconnected because of Link 130
  WARNING: Negative pressures at 18:00:00 hrs.
  WARNING: Node 1390 disconnected at 18:00:00 hrs
  WARNING: Node 1598 disconnected at 18:00:00 hrs
  WARNING: System disconnected because of Link 130
  WARNING: Negative pressures at 19:00:00 hrs.
  WARNING: Node 1390 disconnected at 19:00:00 hrs
  WARNING: Node 1598 disconnected at 19:00:00 hrs
  WARNING: System disconnected because of Link 130
  WARNING: Negative pressures at 20:00:00 hrs.
  WARNING: Node 1390 disconnected at 20:00:00 hrs
  WARNING: Node 1598 disconnected at 20:00:00 hrs
  WARNING: System disconnected because of Link 130
  WARNING: Negative pressures at 21:00:00 hrs.
  WARNING: Node 1390 disconnected at 21:00:00 hrs
  WARNING: Node 1598 disconnected at 21:00:00 hrs
  WARNING: System disconnected because of Link 130
  WARNING: Negative pressures at 21:00:00 hrs.
  WARNING: Node 1390 disconnected at 21:00:00 hrs
  WARNING: Node 1598 disconnected at 21:00:00 hrs
  WARNING: System disconnected because of Link 130
  
  WARNING: Negative pressures at 22:00:00 hrs.
  WARNING: Node 1390 disconnected at 22:00:00 hrs
  WARNING: Node 1598 disconnected at 22:00:00 hrs
  WARNING: System disconnected because of Link 130
  WARNING: Negative pressures at 23:00:00 hrs.
  WARNING: Node 1390 disconnected at 23:00:00 hrs
  WARNING: Node 1598 disconnected at 23:00:00 hrs
  WARNING: System disconnected because of Link 130
  WARNING: Negative pressures at 24:00:00 hrs.
  WARNING: Node 1390 disconnected at 24:00:00 hrs
  WARNING: Node 1598 disconnected at 24:00:00 hrs
  WARNING: System disconnected because of Link 130
   
  Node Results at 0:00:00 hrs:
  ----------------------------------------------------------------------------
                     Inflow    Demand      Leak      QDis      Head  Pressure
  Node                 m3/d      m3/d      m3/d      m3/d         m         m
  ----------------------------------------------------------------------------
  1236                23.77     20.49      3.28     23.77     44.76     42.59
  1237                29.23     22.57      6.66     29.23     44.78     42.48
  1238                33.42     27.74      5.68     33.42     48.19     44.59
  1239                81.55     75.97      5.58     81.55     47.89     44.66
  1240                21.95     13.45      8.51     21.96     44.64     42.42
  1241                 2.81      0.00      2.81      2.81     45.21     42.74
  1242                 0.08      0.00      0.08      0.08     45.21     42.90
  1243                 4.19      3.32      0.87      4.19     48.33     48.33
  1244                 0.66      0.00      0.66      0.66     48.33     48.33
  1245                16.74      9.96      6.79     16.74     44.75     42.41
  1246                 7.83      2.04      5.79      7.83     44.75     41.11
  1247                12.02      0.00     12.02     12.02     64.50     61.14
  1248                10.40      0.00     10.40     10.40     64.50     61.69
  1249                 9.71      0.00      9.71      9.71     48.33     44.41
  1250                 0.77      0.00      0.77      0.77     48.33     45.26
  1251                19.21     15.83      3.39     19.22     44.84     31.81
  1252                 0.00      0.00      0.00      0.00     44.84     44.84
  1254                 8.64      0.00      8.64      8.64     64.73     62.37
  1255                 0.03      0.00      0.03      0.03     44.88     30.73
  1256                 0.00      0.00      0.00      0.00     44.88     31.27
  1257                29.49     24.95      4.54     29.49     43.34     39.82
  1258                12.46     11.18      1.28     12.46     43.37     40.26
  1259                80.39     75.74      4.65     80.39     44.96     42.88
  1260                 8.00      6.89      1.11      8.00     45.08     42.98
  1261                 6.75      5.53      1.22      6.75     43.18     28.29
  1262                 6.29      5.00      1.29      6.29     43.18     28.16
  1263                 0.30      0.00      0.30      0.30     43.37     40.43
  1264                13.84     11.11      2.73     13.84     47.68     44.85
  1265                 0.10      0.00      0.10      0.10     45.48     43.40
  1266                 1.30      0.00      1.30      1.30     45.46     43.38
  1267               202.84    200.44      2.40    202.84     44.33     42.17
  1268                 0.03      0.00      0.03      0.03     44.33     42.17
  1269                28.28     23.01      5.27     28.28     44.59     42.07
  1270                 5.96      4.18      1.79      5.96     44.55     42.47
  1271                14.44      9.24      5.20     14.44     44.55     42.47
  1272                 2.86      0.00      2.86      2.86     44.55     42.12
  1273                 1.30      0.00      1.30      1.30     45.44     43.36
  1274                 0.69      0.00      0.69      0.69     44.88     29.90
  1275                 3.43      0.00      3.43      3.43     44.87     29.44
  1276                56.94     49.02      7.92     56.94     44.81     42.45
  1277                16.03      5.53     10.50     16.03     44.33     28.95
  1278               180.60    178.84      1.75    180.60     44.18     41.98
  1279                11.44      0.00     11.44     11.44     64.59     62.35
  1280                10.41      0.00     10.41     10.41     44.84     28.31
  1281                 0.97      0.00      0.97      0.97     43.61     27.37
  1282                 0.04      0.00      0.04      0.04     43.61     27.25
  1283                 1.00      0.00      1.00      1.00     44.33     42.00
  1284                 1.18      0.00      1.18      1.18     44.35     41.04
  1285                30.92     29.72      1.20     30.92     43.79     27.85
  1286                 1.28      0.00      1.28      1.28     43.66     26.45
  1287                18.74     16.89      1.85     18.74     43.56     27.58
  1288                11.38      8.12      3.26     11.38     43.45     27.05
  1289                12.06      5.88      6.17     12.06     43.80     27.66
  1290               387.51    382.94      4.57    387.51     44.36     41.17
  1291                 0.41      0.00      0.41      0.41     44.33     42.13
  1292                 2.47      0.00      2.47      2.47     43.61     27.25
  1293                 0.09      0.00      0.09      0.09     43.77     28.69
  1294                10.18      7.12      3.06     10.18     43.77     28.32
  1295                 1.05      0.00      1.05      1.05     44.25     41.83
  1296               155.17    154.19      0.98    155.17     43.98     41.78
  1297                 0.19      0.00      0.19      0.19     44.36     40.03
  1298                 0.20      0.00      0.20      0.20     44.33     41.97
  1299                29.30     24.54      4.76     29.30     44.33     41.92
  1300                18.44     13.36      5.08     18.44     45.38     43.30
  1301               251.49    248.99      2.50    251.49     45.09     42.74
  1302                33.30     31.54      1.75     33.30     45.36     43.29
  1303                40.01     38.43      1.58     40.01     45.39     43.31
  1304                 3.00      0.00      3.00      3.00     44.84     25.78
  1305                35.07     33.19      1.88     35.07     43.22     31.78
  1306                61.95     57.26      4.69     61.95     43.22     31.82
  1307                57.14     52.14      5.00     57.14     43.30     34.26
  1308                16.62     11.89      4.74     16.62     45.40     42.93
  1309                29.40     24.42      4.98     29.40     44.93     42.85
  1310                 1.01      0.00      1.01      1.01     44.96     42.45
  1311                46.12     44.78      1.34     46.12     44.92     42.79
  1312                21.50     20.19      1.31     21.50     44.92     42.81
  1313                 3.59      0.00      3.59      3.59     43.91     41.55
  1314                61.96     57.97      4.00     61.96     43.35     30.58
  1315                13.33     11.53      1.80     13.33     43.30     36.70
  1316                18.18     16.36      1.82     18.18     43.23     34.38
  1317                 2.11      0.00      2.11      2.11     43.30     27.41
  1318                55.81     53.85      1.96     55.81     43.30     27.62
  1319                23.97     22.36      1.60     23.97     43.30     34.23
  1320                51.85     48.32      3.53     51.85     43.34     30.82
  1321                29.68     27.84      1.85     29.69     43.30     27.29
  1322                84.26     82.78      1.48     84.26     45.59     43.23
  1323                16.33     15.01      1.32     16.33     43.65     41.35
  1324                 1.54      0.88      0.66      1.54     43.48     40.66
  1325                94.07     89.33      4.73     94.07     43.59     41.27
  1326                10.35      7.47      2.87     10.35     43.54     34.01
  1327               145.71    144.18      1.53    145.71     43.50     41.08
  1328                 5.07      2.06      3.01      5.07     43.52     41.08
  1329                 3.35      0.00      3.35      3.35     43.55     34.77
  1330                 7.31      6.06      1.25      7.31     43.54     34.96
  1331                69.12     67.50      1.62     69.12     43.33     39.44
  1332                 0.13      0.00      0.13      0.13     43.30     36.74
  1333                 8.47      7.18      1.29      8.47     43.30     36.83
  1334                25.99     24.07      1.92     25.99     43.31     36.44
  1335                83.92     79.04      4.89     83.92     43.35     40.80
  1336                37.83     34.19      3.64     37.83     43.35     36.68
  1337                86.73     82.10      4.63     86.73     43.35     40.02
  1338                89.40     87.16      2.25     89.40     43.30     36.27
  1339                92.58     88.27      4.31     92.58     43.82     41.64
  1340                94.04     90.57      3.47     94.04     43.79     41.60
  1341                 8.14      5.88      2.25      8.14     43.90     41.54
  1342                20.09     18.89      1.20     20.09     43.38     40.44
  1343                53.87     52.38      1.49     53.87     43.54     34.15
  1344                73.78     67.27      6.52     73.78     43.66     41.31
  1345                16.20     11.89      4.31     16.20     43.34     30.82
  1346                30.16     27.07      3.09     30.16     43.31     37.66
  1347                20.54     17.71      2.83     20.54     43.32     39.59
  1348                19.21     17.89      1.32     19.22     43.30     36.52
  1349                 4.87      4.06      0.81      4.87     43.30     36.74
  1350               108.54    104.69      3.84    108.54     43.36     27.74
  1351                 0.95      0.00      0.95      0.95     43.39     40.63
  1352               111.80    107.58      4.22    111.80     43.65     41.32
  1353               119.99    115.66      4.33    119.99     44.84     42.62
  1354               133.60    131.59      2.02    133.60     43.65     41.50
  1355               111.46    107.22      4.24    111.46     43.75     41.44
  1356                 2.82      0.00      2.82      2.82     43.46     40.28
  1357                 9.67      7.77      1.90      9.67     43.47     40.05
  1358                14.06     12.42      1.64     14.06     43.30     23.46
  1359                25.05     23.42      1.63     25.05     43.36     27.51
  1360                 5.32      3.77      1.55      5.32     43.45     29.55
  1361                21.40     20.36      1.04     21.40     43.45     30.48
  1362                 4.36      3.41      0.95      4.36     43.45     27.16
  1363                 7.76      6.12      1.64      7.76     43.44     40.51
  1364                15.96     12.12      3.84     15.96     43.46     31.61
  1365                12.01     11.53      0.48     12.01     43.46     40.45
  1366                22.48     19.71      2.76     22.48     43.45     30.64
  1367                 2.31      0.00      2.31      2.31     43.44     38.28
  1368                 2.05      0.00      2.05      2.05     43.96     41.71
  1369                 1.14      0.00      1.14      1.14     43.35     30.87
  1370                25.54     24.48      1.06     25.54     43.35     31.16
  1371                 8.95      7.65      1.30      8.95     43.35     40.11
  1372                47.60     46.26      1.34     47.60     43.32     39.68
  1373                20.40     19.13      1.28     20.40     43.32     40.08
  1374                 0.61      0.00      0.61      0.61     43.37     40.32
  1375                 1.65      0.00      1.65      1.65     48.22     45.41
  1376                 0.06      0.00      0.06      0.06     43.37     40.39
  1377                24.02     20.36      3.66     24.02     43.30     38.91
  1378                17.56     14.01      3.55     17.56     43.25     36.09
  1379                 4.71      1.24      3.47      4.71     45.31     43.08
  1380                 0.26      0.00      0.26      0.26     45.31     43.02
  1381                20.40     18.36      2.04     20.40     43.24     35.42
  1382                76.00     71.24      4.77     76.00     48.22     40.63
  1383                 0.29      0.00      0.29      0.29     43.30     23.44
  1384                 6.28      3.83      2.45      6.28     43.20     33.72
  1385               140.47    136.65      3.82    140.47     43.17     26.76
  1386                17.96     16.12      1.83     17.96     44.29     41.53
  1387                69.28     67.27      2.01     69.28     44.47     42.35
  1388                 0.04      0.00      0.04      0.04     43.23     23.88
  1389                21.29     19.60      1.69     21.29     43.23     23.79
  1390                 0.00      0.00      7.91      7.91     40.15     25.49
  1391                 5.44      0.00      5.44      5.44     44.90     33.86
  1392                 0.90      0.00      0.90      0.90     44.89     32.30
  1393                 5.24      0.00      5.24      5.24     45.20     42.78
  1394                11.63      8.80      2.83     11.63     47.95     41.36
  1395                 2.03      0.00      2.03      2.03     47.95     42.57
  1396                51.61     48.80      2.80     51.61     46.82     44.30
  1397                 4.23      0.44      3.79      4.23     44.56     42.17
  1398                58.67     56.15      2.52     58.67     44.54     41.09
  1399                 3.10      0.00      3.10      3.10     44.64     42.62
  1400                 3.37      3.01      0.36      3.37     48.50     45.00
  1401                13.35      7.83      5.51     13.35     48.50     45.81
  1402                50.50     45.53      4.97     50.50     48.22     45.15
  1403                 0.19      0.00      0.19      0.19     48.64     44.39
  1404                 3.90      0.00      3.90      3.90     48.64     44.35
  1405                 9.73      0.00      9.73      9.73     48.65     44.55
  1406                 0.35      0.00      0.35      0.35     48.65     44.51
  1407                 6.43      0.00      6.43      6.43     64.50     60.75
  1408               174.68    169.11      5.58    174.68     48.50     45.96
  1409                 2.54      0.00      2.54      2.54     48.65     42.76
  1410                 1.74      0.00      1.74      1.74     48.64     42.74
  1411                69.82     65.88      3.93     69.82     47.96     40.47
  1412                22.64     21.19      1.45     22.64     47.96     40.58
  1413                 1.85      0.00      1.85      1.85     44.25     41.84
  1414                17.66     15.42      2.24     17.66     43.16     27.74
  1415                57.56     55.67      1.89     57.56     43.17     24.43
  1416                10.67     10.65      0.01     10.67     43.17     24.43
  1417                 6.77      5.12      1.65      6.77     43.24     27.92
  1418                48.99     45.55      3.44     48.99     43.24     27.92
  1419                47.02     44.14      2.88     47.02     43.17     26.76
  1420                51.17     47.84      3.33     51.17     43.21     34.43
  1421                17.61     15.60      2.01     17.61     43.17     22.82
  1422                 0.60      0.00      0.60      0.60     43.17     22.57
  1423                18.29     16.48      1.82     18.29     43.18     22.22
  1424                29.80     27.95      1.85     29.80     43.17     22.08
  1425                 1.89      0.00      1.89      1.89     43.18     27.83
  1426                 5.67      3.65      2.02      5.67     43.17     24.99
  1427                66.26     62.38      3.88     66.26     43.25     24.21
  1428                14.42     11.42      3.01     14.43     43.24     27.75
  1429                23.56     20.72      2.84     23.56     43.30     27.29
  1430                 1.80      0.00      1.80      1.80     43.30     27.41
  1431                21.47     18.66      2.82     21.47     43.22     28.07
  1432                 4.94      3.30      1.64      4.94     43.24     27.80
  1433                54.69     51.38      3.32     54.69     43.22     28.07
  1434               111.60    108.46      3.14    111.60     43.22     34.22
  1435                31.42     27.31      4.12     31.43     43.22     30.49
  1436                36.78     32.54      4.24     36.79     43.21     32.70
  1437                 2.98      1.77      1.22      2.98     43.20     33.79
  1438                25.73     24.13      1.60     25.73     43.30     23.45
  1439                13.10     11.24      1.86     13.10     43.17     25.70
  1440                 5.32      3.94      1.38      5.32     43.17     28.25
  1441                 0.09      0.00      0.09      0.09     43.21     23.35
  1442                43.15     40.67      2.49     43.15     43.21     23.67
  1443                 9.80      7.12      2.68      9.80     43.22     23.69
  1444                34.37     29.66      4.71     34.37     43.18     29.74
  1445                49.83     45.11      4.72     49.83     43.18     31.66
  1446                72.09     69.97      2.12     72.09     43.16     28.96
  1447                11.17     10.59      0.58     11.17     43.19     33.44
  1448                 1.43      0.00      1.43      1.43     43.19     33.32
  1449                28.03     26.84      1.20     28.03     43.30     23.89
  1450                17.06     15.01      2.05     17.06     43.18     22.34
  1451                 0.11      0.00      0.11      0.11     43.18     22.34
  1452                 0.09      0.00      0.09      0.09     43.18     22.40
  1453                 0.13      0.00      0.13      0.13     43.17     24.92
  1454                20.42     18.60      1.83     20.42     43.17     26.28
  1455                10.26      6.71      3.55     10.26     43.17     25.19
  1456                 3.56      1.53      2.03      3.56     43.17     22.58
  1457                34.81     31.43      3.39     34.82     43.16     27.74
  1458                16.83     15.42      1.42     16.83     43.18     28.54
  1459                 0.43      0.00      0.43      0.43     48.65     43.13
  1460                30.39     28.05      2.34     30.39     48.45     40.72
  1461                 1.22      0.00      1.22      1.22     48.45     40.99
  1462                 0.37      0.00      0.37      0.37     48.65     43.09
  1463                18.03      9.20      8.83     18.03     48.65     43.22
  1464                 0.72      0.00      0.72      0.72     48.65     43.12
  1465                 1.12      0.00      1.12      1.12     48.64     42.06
  1466                 0.25      0.00      0.25      0.25     48.56     41.92
  1467                 0.63      0.00      0.63      0.63     47.95     42.57
  1468                 7.46      0.00      7.46      7.46     48.51     41.82
  1469                 2.02      0.44      1.58      2.02     48.55     41.91
  1470                 6.47      5.40      1.08      6.47     48.36     32.30
  1471                 7.15      0.00      7.15      7.15     48.36     32.50
  1472                10.55      8.36      2.19     10.55     48.31     38.45
  1473                14.05     11.86      2.19     14.05     48.31     38.63
  1474                 1.69      0.00      1.69      1.69     48.41     38.38
  1475                 0.87      0.00      0.87      0.87     48.42     38.66
  1476                 0.71      0.00      0.71      0.71     48.33     35.36
  1477                 1.77      0.00      1.77      1.77     48.34     35.65
  1478                 9.78      5.49      4.29      9.78     48.24     36.79
  1479                 0.53      0.00      0.53      0.53     48.24     36.65
  1480                39.29     36.81      2.48     39.29     47.97     40.31
  1481                 4.89      0.00      4.89      4.89     64.53     61.96
  1482                12.40      3.94      8.46     12.40     48.53     43.77
  1483                 0.13      0.00      0.13      0.13     48.53     44.39
  1484                15.61      6.99      8.62     15.61     48.54     44.06
  1485                16.28      6.90      9.38     16.28     48.55     44.21
  1486                 8.66      0.00      8.66      8.66     48.65     44.69
  1487                31.65     31.64      0.02     31.65     47.95     42.57
  1488                24.16     22.12      2.04     24.16     47.89     44.01
  1489               114.14    111.46      2.69    114.14     47.89     43.93
  1490                 0.97      0.00      0.97      0.97     44.75     42.46
  1491                 7.01      0.00      7.01      7.01     48.50     28.65
  1492                 3.64      0.00      3.64      3.64     48.50     35.21
  1493                 0.58      0.00      0.58      0.58     48.50     35.17
  1494                 3.65      0.00      3.65      3.65     48.50     35.20
  1495                20.66     18.07      2.60     20.66     43.38     40.36
  1496                 0.83      0.00      0.83      0.83     44.33     41.52
  1497                 0.19      0.00      0.19      0.19     44.27     41.81
  1498                 0.19      0.00      0.19      0.19     44.33     41.87
  1499                 1.20      0.00      1.21      1.21     43.22     34.22
  1500                 0.03      0.00      0.03      0.03     43.17     19.79
  1501                 3.76      2.59      1.17      3.76     43.17     19.98
  1502                 0.01      0.00      0.01      0.01     43.17     22.08
  1503                 0.84      0.00      0.84      0.84     43.17     22.58
  1504                 0.20      0.00      0.20      0.20     44.36     40.89
  1505                 3.95      1.77      2.18      3.95     48.36     31.45
  1506                 2.89      1.37      1.52      2.89     48.36     31.45
  1507                39.67     32.65      7.02     39.67     48.40     41.13
  1508                54.25     51.24      3.01     54.25     48.28     38.66
  1509                90.92     83.18      7.74     90.92     48.26     35.28
  1510                26.03     21.55      4.48     26.03     48.25     42.17
  1511                 2.14      0.00      2.14      2.14     48.31     41.92
  1512                 1.16      0.00      1.16      1.16     48.45     42.04
  1513                11.03      6.64      4.39     11.03     48.31     33.74
  1514                 1.80      0.00      1.80      1.80     48.31     34.06
  1515                21.34     18.41      2.94     21.34     48.31     35.16
  1516                 0.05      0.00      0.05      0.05     48.33     35.36
  1517                 0.06      0.00      0.06      0.06     48.31     34.93
  1518                 0.04      0.00      0.04      0.04     48.41     38.38
  1519                 0.04      0.00      0.04      0.04     48.31     38.53
  1520                 6.46      5.93      0.53      6.46     48.50     41.72
  1521                14.15      0.00     14.15     14.15     48.50     41.64
  1522                 1.80      0.00      1.80      1.80     48.65     41.22
  1523                10.98      7.96      3.02     10.98     48.55     42.51
  1524                 0.36      0.00      0.36      0.36     47.96     41.35
  1525                 1.08      0.00      1.08      1.08     47.97     40.08
  1526                72.52     66.77      5.76     72.52     48.22     39.45
  1527                 9.58      7.92      1.66      9.58     48.22     40.54
  1528                42.75     37.17      5.59     42.75     47.95     42.26
  1529                 2.30      0.00      2.30      2.30     48.64     42.43
  1530                 3.11      1.99      1.11      3.11     48.64     42.43
  1531                10.88      6.99      3.89     10.88     47.96     43.13
  1532                14.07      0.00     14.07     14.07     48.50     41.78
  1533                 4.10      0.00      4.10      4.10     48.64     42.54
  1534                 0.04      0.00      0.04      0.04     48.50     28.52
  1535                14.30      0.00     14.30     14.30     48.50     35.10
  1536                28.83     26.01      2.82     28.83     43.17     26.67
  1537                38.16     36.60      1.55     38.16     43.17     21.22
  1538                12.52     12.48      0.04     12.52     43.18     22.16
  1539                 7.80      0.00      7.80      7.80     64.53     61.96
  1540                 2.28      0.00      2.28      2.28     44.75     42.57
  1541                64.42     61.28      3.14     64.42     44.61     42.48
  1542                 0.68      0.00      0.68      0.68     44.61     42.46
  1543                90.66     87.96      2.70     90.66     44.68     42.50
  1544                 2.61      0.00      2.61      2.61     44.68     42.55
  1545                 0.10      0.00      0.10      0.10     44.64     40.98
  1546                 2.76      0.00      2.76      2.76     44.60     41.38
  1547                 0.03      0.00      0.03      0.03     44.60     41.38
  1548               182.30    178.00      4.30    182.30     44.60     42.39
  1549                92.84     90.57      2.27     92.84     46.00     43.54
  1550                 0.25      0.00      0.25      0.25     46.00     43.60
  1551                 1.43      0.00      1.43      1.43     48.59     44.52
  1552                37.57     33.63      3.95     37.57     48.50     44.23
  1553                 2.78      0.00      2.78      2.78     44.58     42.21
  1554                45.10     42.34      2.76     45.10     45.22     42.95
  1555                19.53     19.47      0.07     19.53     45.22     42.92
  1556               132.95    127.34      5.61    132.95     44.32     41.96
  1557                83.71     77.30      6.41     83.71     44.32     41.85
  1558                 0.39      0.00      0.39      0.39     44.21     40.56
  1559                54.02     51.24      2.79     54.02     44.21     40.51
  1560                11.75      8.01      3.74     11.75     48.51     43.71
  1561                 0.01      0.00      0.01      0.01     48.51     43.71
  1562                 6.05      1.46      4.59      6.05     48.50     44.05
  1563                 0.03      0.00      0.03      0.03     48.50     44.05
  1564                 0.03      0.00      0.03      0.03     44.56     42.17
  1565                 0.03      0.00      0.03      0.03     44.58     42.21
  1566                 0.03      0.00      0.03      0.03     48.52     43.53
  1567                 3.91      0.00      3.91      3.91     48.52     43.53
  1568                33.08     29.60      3.48     33.08     45.67     43.31
  1569                26.73     21.41      5.31     26.73     44.20     40.62
  1570                37.84     33.85      3.99     37.84     47.89     43.86
  1571                35.51     32.61      2.91     35.51     43.50     40.71
  1572                 1.70      0.93      0.77      1.70     44.32     41.95
  1573                56.15     54.07      2.08     56.15     44.76     42.50
  1574                 0.37      0.00      0.37      0.37     44.76     42.53
  1575                20.56     19.07      1.50     20.57     44.64     42.43
  1576               584.26    571.92     12.34    584.26     48.33     44.50
  1577                42.22     40.04      2.18     42.22     44.71     42.49
  1578                 0.31      0.00      0.31      0.31     44.71     42.53
  1579                10.82      5.00      5.82     10.82     47.98     44.37
  1580                 9.07      7.04      2.04      9.07     47.97     44.36
  1581                 0.15      0.00      0.15      0.15     48.65     44.37
  1582                 0.22      0.00      0.22      0.22     44.54     40.61
  1583                 0.24      0.00      0.24      0.24     44.75     42.43
  1584                 3.74      0.00      3.74      3.74     44.68     42.49
  1585                24.33     20.57      3.76     24.33     48.53     42.97
  1586                 9.99      5.04      4.95      9.99     48.33     45.03
  1587                 4.87      0.00      4.87      4.87     48.33     48.33
  1588                15.35     12.08      3.27     15.35     48.34     32.58
  1589                11.31      7.88      3.43     11.31     48.36     32.21
  1590                44.59     42.87      1.71     44.59     48.30     35.25
  1591                12.97      8.89      4.07     12.97     48.28     34.26
  1592                21.06     19.78      1.29     21.06     48.27     35.26
  1593                 0.05      0.00      0.05      0.05     48.28     38.26
  1594                69.10     68.58      0.52     69.10     48.64     42.32
  1595                83.64     81.19      2.45     83.64     48.24     36.35
  1596                13.95      0.00     13.95     13.95     48.46     34.35
  1597                 8.68      7.70      0.98      8.68     48.36     32.96
  1598                 0.00      0.00      7.91      7.91     40.15     40.15
  1599                15.92     15.65      0.26     15.92     43.37     40.34
  1600                 0.21      0.00      0.21      0.21     44.84     31.22
  1601                50.70     45.73      4.98     50.70     44.05     41.85
  1602                 4.30      2.06      2.24      4.30     45.08     42.91
  1603                 8.88      5.77      3.11      8.88     44.77     42.52
  1604                 0.04      0.00      0.04      0.04     44.77     42.54
  1605                 3.17      0.00      3.17      3.17     44.39     42.16
  1606               108.47    102.99      5.49    108.48     43.81     41.55
  1607                 3.69      1.06      2.63      3.69     44.68     42.39
  1608                 0.15      0.00      0.15      0.15     48.62     44.54
  1609                 0.27      0.00      0.27      0.27     44.68     42.51
  1610                 0.06      0.00      0.06      0.06     64.58     62.31
  1407-1               9.46      0.00      9.46      9.46     48.75     45.00
  R1               -9745.68      0.00      4.97      4.97     65.10     -0.00  Reservoir
   
   
  Link Results at 0:00:00 hrs:
  --------------------------------------------------------
                       Flow      Leak  Velocity  Headloss
  Link                 m3/d      m3/d       m/s    /1000m
  --------------------------------------------------------
  1                 -152.79      3.93      0.10      0.17
  2                 1618.99      3.75      0.60      3.39
  3                  132.27      5.46      0.19      0.96
  4                    0.08      0.15      0.00      0.00
  5                    0.66      1.32      0.00      0.00
  6                    7.83     11.59      0.00      0.00
  7                   10.40     20.79      0.00      0.00
  8                    0.77      1.53      0.00      0.00
  9                    0.00      0.00      0.00      0.00
  10                9745.68      9.93      0.57      1.08
  11                   0.00      0.00      0.00      0.00
  12                -569.99      2.19      0.21      0.49
  13                -212.58      2.12      0.31      2.31
  14                  29.85      0.12      0.04      0.06
  15                   0.00      0.00      0.00      0.00
  16                5656.13      0.19      0.93      4.77
  17                   0.03      0.05      0.00      0.00
  18                 101.37      2.31      0.15      0.59
  19                   2.86      5.72      0.01      0.00
  20                2576.26      0.50      0.42      1.11
  21                2454.80      0.27      0.30      0.48
  22                 198.93      4.20      0.29      2.04
  23                 383.47      1.24      0.57      6.88
  24                1264.29      6.68      0.47      2.14
  25                 180.60      3.51      0.27      1.71
  26                9737.04      7.35      0.57      1.08
  27                1167.66      6.26      0.14      0.12
  28                   0.04      0.09      0.00      0.00
  29                -132.42      0.67      0.20      0.96
  30                1133.25      1.92      0.42      1.75
  31                1131.97      0.65      0.42      1.75
  32                 138.26      2.63      0.20      1.04
  33                1349.77      5.71      0.50      2.42
  34                 157.00      1.07      0.23      1.32
  35                1154.25      8.56      0.43      1.81
  36                  -0.41      0.81      0.00      0.00
  37                 973.95      0.14      0.36      1.32
  38                  -0.09      0.19      0.00      0.00
  39                 155.17      1.97      0.41      5.23
  40                  -0.19      0.38      0.00      0.00
  41                  -0.20      0.39      0.00      0.00
  42               -3078.57      1.90      0.50      1.55
  43                -305.36      4.66      0.45      4.51
  44               -3026.84      4.75      0.50      1.50
  45                 -33.30      3.51      0.09      0.30
  46                 268.61      0.20      0.62     10.55
  47                 101.51      8.61      0.04      0.02
  48                  -3.00      6.00      0.00      0.00
  49                  92.83      0.36      0.21      1.47
  50                 131.01      0.53      0.05      0.03
  51                  73.12      0.22      0.11      0.32
  52                 108.19      3.55      0.16      0.66
  53                 178.55      2.76      0.47      6.78
  54                 228.60      2.96      0.53      7.83
  55                   1.01      2.01      0.00      0.00
  56                -212.71      2.10      0.31      2.31
  57                  46.12      2.68      0.12      0.55
  58                  21.50      2.63      0.06      0.13
  59                 185.44      6.58      0.43      5.31
  60                 110.32      3.78      0.16      0.68
  61                 111.82      3.48      0.16      0.70
  62                  12.47      0.82      0.00      0.00
  63                 -67.30      0.11      0.02      0.00
  64                  68.33      3.63      0.10      0.28
  65                 206.11      3.39      0.13      0.30
  66                   0.00      0.00      0.00      0.00
  67                -127.22      1.17      0.33      3.62
  68                  82.56      5.57      0.19      1.19
  69                -224.98      0.34      0.33      2.56
  70                  77.37      0.18      0.18      1.05
  71                -525.36      1.10      0.19      0.42
  72                 -28.79      0.11      0.01      0.00
  73                 -92.59      3.16      0.14      0.50
  74                 -16.15      3.21      0.02      0.02
  75                  22.80      3.81      0.01      0.00
  76                 107.79      1.91      0.16      0.66
  77                -184.77      2.49      0.27      1.78
  78                -104.20      1.63      0.15      0.62
  79                -198.51      2.53      0.29      2.03
  80                  21.68      4.07      0.03      0.03
  81                  72.21      0.17      0.17      0.93
  82                 -86.10      6.04      0.13      0.43
  83                 -39.42      0.15      0.10      0.41
  84                 326.29      0.04      0.21      0.71
  85                 -17.93      2.68      0.05      0.10
  86                -255.43      2.53      0.06      0.04
  87                -376.01      1.48      0.14      0.23
  88                 327.34      2.80      0.12      0.18
  89                   1.31      4.43      0.00      0.00
  90                 -15.14      5.79      0.01      0.00
  91                -124.29      0.77      0.18      0.85
  92                -182.19      0.11      0.27      1.73
  93                   0.00      0.00      0.00      0.00
  94                -243.00      1.99      0.36      2.96
  95                 -69.61      1.09      0.10      0.29
  96                 971.48      4.80      0.36      1.32
  97                -510.55      3.18      0.19      0.40
  98                   6.89      1.32      0.02      0.02
  99                  12.20      1.78      0.03      0.05
  100               -175.20      2.18      0.26      1.61
  101                -57.76      2.67      0.15      0.84
  102                 -5.66      4.19      0.01      0.01
  103                -61.13      0.37      0.09      0.23
  104                -47.47      0.82      0.12      0.58
  105                 10.48      3.96      0.02      0.03
  106                 30.64      2.17      0.08      0.26
  107               -254.05      0.58      0.37      3.21
  108                 -2.06      2.46      0.08      1.10
  109               -133.60      4.03      0.20      0.98
  110                -66.60      0.69      0.10      0.27
  111                 25.54      2.12      0.04      0.05
  112                654.01      1.89      0.24      0.63
  113                 20.40      2.56      0.05      0.12
  114               -388.24      2.02      0.14      0.24
  115                663.64      0.37      0.24      0.65
  116                  0.00      0.00      0.00      0.00
  117                -37.26      2.47      0.01      0.00
  118                554.26      3.76      0.20      0.47
  119                  0.26      0.51      0.00      0.00
  120                  0.00      0.00      0.00      0.00
  121                488.98      1.12      0.18      0.37
  122               -496.49      0.11      0.18      0.38
  123                -14.51      0.75      0.04      0.07
  124               -174.79      0.44      0.26      1.61
  125                157.46      4.81      0.10      0.18
  126               -199.41      3.51      0.52      8.32
  127                 80.72      6.51      0.19      1.14
  128                 69.28      4.03      0.18      1.17
  129                 -0.04      0.09      0.00      0.00
  130                  0.00      0.00      0.00      0.00
  131               2456.42      0.77      0.30      0.48
  132              -2461.86     10.11      0.40      1.02
  133               2455.52      1.03      0.30      0.48
  134                 -0.03      0.07      0.00      0.00
  135                 12.88      2.23      0.02      0.01
  136               1549.83      2.81      1.02     12.68
  137                 58.89      4.61      0.09      0.21
  138                  3.20      6.00      0.00      0.00
  139                 -3.37      0.72      0.00      0.00
  140               -123.28      9.26      0.05      0.03
  141                 -0.19      0.38      0.00      0.00
  142               1304.81      0.38      0.08      0.03
  143               4018.32     18.92      0.24      0.21
  144                -16.72     10.30      0.02      0.02
  145                807.09      0.77      0.05      0.01
  146                 70.78      0.18      0.10      0.30
  147                 22.42      3.25      0.00      0.00
  148               -256.11      3.53      0.38      3.26
  149                -16.60      2.80      0.02      0.02
  150                 10.67      0.03      0.02      0.02
  151                -14.46      0.05      0.03      0.05
  152                -61.12      2.15      0.04      0.03
  153               -468.58      2.96      0.17      0.34
  154                 42.55      0.37      0.02      0.00
  155                139.07      2.02      0.05      0.04
  156                 12.50      1.91      0.03      0.05
  157                 22.32      2.48      0.05      0.11
  158                 87.29      3.52      0.13      0.44
  159                -88.68      3.53      0.13      0.46
  160                 48.72      3.23      0.07      0.15
  161                 49.22      3.23      0.07      0.15
  162                  6.18      2.70      0.01      0.01
  163                 12.42      2.69      0.03      0.04
  164                 10.38      2.25      0.02      0.03
  165                 30.22      3.16      0.04      0.06
  166                163.73      0.09      0.11      0.20
  167                497.02      0.21      0.18      0.38
  168                 41.03      0.03      0.09      0.32
  169                  5.32      2.76      0.01      0.01
  170                 25.23      3.30      0.06      0.13
  171                 -0.09      0.17      0.00      0.00
  172               -427.78      1.45      0.16      0.29
  173                  8.15      3.38      0.02      0.02
  174               -136.72      4.25      0.05      0.03
  175                -61.91      2.58      0.09      0.23
  176               -261.07      0.89      0.10      0.12
  177               -249.90      0.26      0.09      0.11
  178               -248.47      2.61      0.09      0.11
  179                -28.85      2.15      0.01      0.00
  180                 -0.82      0.25      0.00      0.00
  181                -13.62      2.39      0.03      0.04
  182                471.29      2.98      0.17      0.34
  183                359.73      0.98      0.13      0.21
  184                  0.11      0.23      0.00      0.00
  185                 34.75      3.55      0.05      0.08
  186                286.71      0.02      0.11      0.14
  187                  0.13      0.27      0.00      0.00
  188                -13.15      2.77      0.02      0.01
  189                  7.27      0.88      0.01      0.00
  190                 23.56      2.46      0.03      0.04
  191                 10.18      1.65      0.01      0.01
  192                 31.56      3.17      0.05      0.07
  193                -67.82      2.39      0.02      0.01
  194                -14.39      1.87      0.01      0.00
  195               -811.43      0.71      0.05      0.01
  196                  2.38      0.12      0.00      0.00
  197              -1088.12      0.52      0.06      0.02
  198              -1087.75      0.22      0.06      0.02
  199                725.63      0.15      1.07     22.42
  200                  3.32      0.12      0.00      0.00
  201                568.67      0.13      0.84     14.28
  202                156.72      0.22      0.23      1.31
  203               -476.19      0.11      0.18      0.35
  204                 16.19      0.12      0.01      0.00
  205               -121.06      0.12      0.18      0.81
  206               -117.56      0.35      0.17      0.77
  207               -203.59      0.15      0.08      0.07
  208                219.61      0.08      0.32      2.45
  209               4056.63      9.60      0.24      0.21
  210                  0.13      0.26      0.00      0.00
  211               -811.47      0.28      0.30      0.94
  212               1114.81      0.17      0.07      0.02
  213                 31.65      0.03      0.08      0.28
  214                 99.20      0.26      0.15      0.56
  215                  0.00      0.00      0.00      0.00
  216               -811.86      0.15      0.05      0.01
  217                 -3.42      6.78      0.01      0.00
  218                  7.29      0.14      0.02      0.02
  219                663.93      0.22      0.24      0.65
  220                632.76      1.50      0.23      0.59
  221                156.22      0.14      0.41      5.30
  222                631.92      0.16      0.23      0.59
  223                  0.39      0.03      0.00      0.00
  224               -435.90      0.02      0.64      8.72
  225                 93.64      0.15      0.14      0.51
  226                 -0.03      0.06      0.00      0.00
  227                  0.01      0.02      0.00      0.00
  228                 11.24      0.02      0.02      0.01
  229                -50.99      0.44      0.02      0.01
  230                 13.62      0.02      0.03      0.04
  231               -191.53      0.01      0.05      0.02
  232               -101.05      0.05      0.02      0.01
  233               -139.70      0.02      0.03      0.01
  234                 95.18      0.02      0.22      1.55
  235               -140.16      0.03      0.32      3.16
  236                108.43      0.02      0.04      0.03
  237                662.97      0.71      0.24      0.65
  238                615.54      1.08      0.23      0.56
  239                 -0.06      0.13      0.00      0.00
  240                 68.00      0.13      0.18      1.14
  241                 26.68      0.15      0.04      0.05
  242                  8.17      0.66      0.02      0.02
  243               -125.68      0.15      0.33      3.54
  244                125.15      0.12      0.18      0.87
  245                 96.49      0.03      0.02      0.01
  246               -274.65      0.12      0.06      0.04
  247               -535.60      0.09      0.20      0.44
  248               -257.95      0.17      0.38      3.30
  249               -217.37      0.15      0.57      9.76
  250                766.55      0.21      0.28      0.85
  251                766.36      0.19      0.28      0.85
  252                414.36      0.07      1.09     32.25
  253                 11.57      1.07      0.00      0.00
  254                155.30      3.23      0.23      1.29
  255                 26.03      8.97      0.04      0.05
  256                  2.14      4.27      0.00      0.00
  257                  1.16      2.32      0.00      0.00
  258                -66.81      1.06      0.02      0.01
  259                 26.78      4.19      0.01      0.00
  260               -116.79      0.98      0.17      0.76
  261                 -0.05      0.10      0.00      0.00
  262                 -0.06      0.12      0.00      0.00
  263                 48.19      1.56      0.02      0.01
  264               -119.33      3.19      0.18      0.79
  265                 -0.04      0.08      0.00      0.00
  266                 -0.04      0.08      0.00      0.00
  267                121.93      1.62      0.18      0.82
  268               -483.34     14.19      0.18      0.36
  269                 43.38      0.20      0.02      0.00
  270                 77.86      0.61      0.11      0.36
  271                  1.80      3.60      0.00      0.00
  272               -275.16      1.07      0.41      3.72
  273                 -0.36      0.71      0.00      0.00
  274                 -1.08      2.16      0.00      0.00
  275                259.98      2.73      0.38      3.35
  276                -47.27      0.28      0.02      0.01
  277                -37.69      3.04      0.01      0.00
  278                 23.27      1.41      0.03      0.04
  279                200.29      2.77      0.30      2.07
  280                724.15      0.04      0.04      0.01
  281                 35.60      1.10      0.05      0.08
  282                154.70      2.94      0.23      1.28
  283                -28.03      0.24      0.01      0.00
  284                 47.78      2.01      0.07      0.15
  285                805.36      2.70      0.05      0.01
  286                  3.64      7.16      0.01      0.01
  287                  0.04      0.09      0.00      0.00
  288                 -7.06      0.51      0.02      0.02
  289                -14.94      0.52      0.01      0.00
  290                -20.00      2.78      0.03      0.03
  291                 -6.69      1.86      0.01      0.00
  292                 34.53      2.78      0.05      0.08
  293                 25.70      0.08      0.04      0.05
  294                -14.49      3.59      0.02      0.02
  295                 73.31      0.88      0.03      0.01
  296                 41.95      0.83      0.03      0.02
  297                  3.79      2.28      0.00      0.00
  298                299.32      0.07      0.11      0.15
  299                109.26      1.66      0.04      0.02
  300               -129.35      1.59      0.08      0.13
  301                 12.52      0.09      0.03      0.04
  302                361.38      0.99      0.13      0.21
  303                382.71      2.31      0.14      0.23
  304                316.49      3.82      0.12      0.16
  305                -47.72      2.23      0.11      0.43
  306               1106.15     17.14      0.07      0.02
  307                 30.67      0.14      0.05      0.06
  308               -126.74      1.91      0.08      0.12
  309                  0.68      1.37      0.00      0.00
  310               4030.84      0.04      0.24      0.21
  311                  2.61      5.22      0.00      0.00
  312                 65.10      4.91      0.10      0.26
  313               -314.29      3.93      0.21      0.66
  314               -129.02      2.64      0.08      0.13
  315                  0.10      0.20      0.00      0.00
  316                  0.03      0.05      0.00      0.00
  317                 68.74      2.89      0.05      0.04
  318                  0.25      0.49      0.00      0.00
  319               1861.93      0.90      0.69      4.39
  320                 65.95      2.58      0.10      0.26
  321                 19.53      0.13      0.04      0.08
  322                 63.14      2.91      0.09      0.24
  323                  6.16      0.50      0.01      0.01
  324                -63.89      0.31      0.09      0.25
  325                  0.01      0.02      0.00      0.00
  326               -117.91      5.27      0.17      0.77
  327                  0.03      0.05      0.00      0.00
  328                  0.03      0.05      0.00      0.00
  329                  0.03      0.05      0.00      0.00
  330                 -0.03      0.06      0.00      0.00
  331                263.08      5.26      0.61     10.15
  332               -197.16      5.51      0.29      2.01
  333                123.97      5.47      0.18      0.85
  334                -17.79      4.10      0.03      0.02
  335                -35.62      2.45      0.05      0.08
  336               1842.14      2.89      0.68      4.30
  337                -41.17      0.37      0.06      0.11
  338               1563.67      2.66      0.58      3.18
  339               1498.23      2.80      0.98     11.91
  340               1405.14      1.24      0.92     10.58
  341               1108.97      0.46      0.73      6.82
  342               -160.75      4.69      0.42      5.58
  343               1024.71      2.50      0.67      5.90
  344                960.08      2.88      0.63      5.23
  345                -23.86      5.02      0.05      0.12
  346                  1.70      1.54      0.00      0.00
  347                 14.17      1.71      0.02      0.02
  348                -79.01      7.61      0.12      0.37
  349                  0.37      0.75      0.00      0.00
  350                -42.00      0.63      0.04      0.04
  351                -63.50      0.47      0.17      1.00
  352                604.46     16.11      0.22      0.55
  353                426.75      2.17      0.28      1.16
  354                525.80      1.85      0.34      1.71
  355                 -0.31      0.62      0.00      0.00
  356                469.28      1.55      0.31      1.39
  357                189.73      4.71      0.28      1.87
  358                123.36      3.81      0.18      0.84
  359                -26.22      4.74      0.04      0.05
  360                 46.48      6.67      0.07      0.14
  361               -189.65      0.15      0.28      1.87
  362               -189.50      0.14      0.28      1.86
  363               -191.40      0.85      0.28      1.90
  364                  0.22      0.44      0.00      0.00
  365                101.93      0.41      0.04      0.02
  366                 93.27      0.18      0.14      0.50
  367                 12.53     16.67      0.03      0.05
  368                -39.56      5.32      0.06      0.10
  369                185.41      7.28      0.27      1.79
  370               -448.19      0.19      0.66      9.19
  371                132.43      0.26      0.20      0.96
  372                  9.72      9.32      0.01      0.00
  373                  4.85      0.42      0.00      0.00
  374                 20.20      8.57      0.01      0.00
  375               -398.31      1.88      0.15      0.25
  376               -382.96      4.67      0.14      0.23
  377                 15.51      3.29      0.01      0.00
  378                 71.41      0.16      0.03      0.01
  379                 44.59      3.42      0.12      0.52
  380                -63.90      2.20      0.09      0.25
  381                 -5.31      8.05      0.13      2.13
  382                 21.06      2.57      0.06      0.13
  383               -404.70      2.52      0.15      0.26
  384               -438.73      3.06      0.16      0.30
  385                  0.05      0.10      0.00      0.00
  386                101.00      2.70      0.15      0.58
  387                 69.10      1.04      0.05      0.04
  388                 -5.71      0.11      0.01      0.00
  389                726.75      2.08      0.04      0.01
  390               -287.75      3.99      0.11      0.14
  391                732.16      4.45      0.04      0.01
  392               -294.81      5.74      0.11      0.14
  393               -204.11      0.90      0.08      0.07
  394                -29.24     28.09      0.01      0.00
  395                -13.95     27.91      0.04      0.06
  396                  8.68      1.96      0.02      0.03
  397                  0.00     15.82      0.00      0.00
  398                -43.33      3.10      0.01      0.00
  399                -79.27      2.71      0.12      0.37
  400               -125.23      1.12      0.33      3.52
  401                -85.06      2.48      0.13      0.42
  402               2306.36      1.89      0.38      0.91
  403               -582.45      0.37      0.21      0.51
  404                 16.56      0.11      0.04      0.08
  405               1257.00      0.12      0.46      2.12
  406               4069.32     15.43      0.24      0.22
  407               1283.51      0.09      0.47      2.20
  408               1283.71      0.33      0.47      2.20
  409                288.06      0.02      0.42      4.05
  410               -556.85      0.34      0.82     13.73
  411                202.44      4.25      0.30      2.11
  412               -220.57      0.10      0.33      2.47
  413                  0.04      0.07      0.00      0.00
  414               1872.42      3.37      0.69      4.43
  415               1282.96      4.82      0.47      2.20
  416                -64.79      6.07      0.17      1.04
  417               1869.25      2.98      0.69      4.42
  418                  3.69      5.26      0.01      0.00
  419               -173.77      0.67      0.06      0.05
  420               -102.17      0.08      0.04      0.02
  421                175.42      2.62      0.26      1.62
  422               -598.37      0.16      0.22      0.54
  423              -2703.78      0.15      1.00      8.76
  424              -2703.64      0.14      1.00      8.76
  425                100.97      1.52      0.23      1.72
  426                 -0.27      0.53      0.00      0.00
  427               -840.28      1.81      0.31      1.01
  428              -2467.10      0.37      0.40      1.03
  430               5656.29      0.11      0.93      4.77
  432               1881.34      2.78      0.69      4.47
  433               2106.22      1.61      0.78      5.51
  434               2111.18      4.82      0.35      0.77
  435               1442.84      2.17      0.53      2.74
  436               1616.11      2.73      0.60      3.38
  437               -135.18      2.25      0.20      1.00
  PRV_3       5656.23      0.00      2.08     19.10  PRV
  PRV_4       4027.78      0.00      2.64     15.75  PRV
   
  Sum of Leakage =    1047.67
   
   
  Node Results at 1:00:00 hrs:
  ----------------------------------------------------------------------------
                     Inflow    Demand      Leak      QDis      Head  Pressure
  Node                 m3/d      m3/d      m3/d      m3/d         m         m
  ----------------------------------------------------------------------------
  1236                23.04     19.74      3.30     23.04     44.92     42.75
  1237                28.43     21.74      6.69     28.43     44.93     42.63
  1238                32.41     26.73      5.68     32.41     48.22     44.62
  1239                78.78     73.20      5.58     78.78     47.92     44.69
  1240                21.50     12.96      8.54     21.50     44.80     42.58
  1241                 2.81      0.00      2.81      2.81     45.20     42.73
  1242                 0.08      0.00      0.08      0.08     45.20     42.89
  1243                 4.07      3.20      0.87      4.07     48.35     48.35
  1244                 0.66      0.00      0.66      0.66     48.35     48.35
  1245                16.40      9.59      6.81     16.41     44.90     42.56
  1246                 7.78      1.96      5.81      7.78     44.90     41.26
  1247                12.02      0.00     12.02     12.02     64.51     61.15
  1248                10.40      0.00     10.40     10.40     64.51     61.70
  1249                 9.72      0.00      9.72      9.72     48.35     44.43
  1250                 0.77      0.00      0.77      0.77     48.35     45.28
  1251                19.39     16.00      3.38     19.39     44.83     31.80
  1252                 0.00      0.00      0.00      0.00     44.83     44.83
  1254                 8.64      0.00      8.64      8.64     64.73     62.37
  1255                 0.03      0.00      0.03      0.03     44.87     30.72
  1256                 0.00      0.00      0.00      0.00     44.87     31.26
  1257                29.76     25.23      4.53     29.76     43.31     39.79
  1258                12.58     11.30      1.28     12.58     43.34     40.23
  1259                81.22     76.57      4.65     81.22     44.95     42.87
  1260                 8.07      6.96      1.11      8.07     45.07     42.97
  1261                 6.81      5.59      1.22      6.81     43.15     28.26
  1262                 6.35      5.06      1.29      6.35     43.15     28.13
  1263                 0.30      0.00      0.30      0.30     43.35     40.41
  1264                13.44     10.70      2.73     13.44     47.73     44.90
  1265                 0.10      0.00      0.10      0.10     45.48     43.40
  1266                 1.30      0.00      1.30      1.30     45.46     43.38
  1267               205.04    202.64      2.40    205.04     44.31     42.15
  1268                 0.03      0.00      0.03      0.03     44.31     42.15
  1269                28.53     23.26      5.27     28.53     44.57     42.05
  1270                 6.01      4.22      1.78      6.01     44.54     42.46
  1271                14.54      9.34      5.20     14.54     44.54     42.46
  1272                 2.86      0.00      2.86      2.86     44.54     42.11
  1273                 1.30      0.00      1.30      1.30     45.44     43.36
  1274                 0.69      0.00      0.69      0.69     44.87     29.89
  1275                 3.43      0.00      3.43      3.43     44.86     29.43
  1276                57.48     49.56      7.92     57.48     44.80     42.44
  1277                16.09      5.59     10.50     16.09     44.31     28.93
  1278               182.56    180.81      1.75    182.56     44.16     41.96
  1279                11.45      0.00     11.45     11.45     64.60     62.36
  1280                10.40      0.00     10.41     10.41     44.83     28.30
  1281                 0.97      0.00      0.97      0.97     43.59     27.35
  1282                 0.04      0.00      0.04      0.04     43.59     27.23
  1283                 1.00      0.00      1.00      1.00     44.32     41.99
  1284                 1.18      0.00      1.18      1.18     44.34     41.03
  1285                31.24     30.04      1.20     31.24     43.77     27.83
  1286                 1.28      0.00      1.28      1.28     43.64     26.43
  1287                18.92     17.08      1.85     18.92     43.54     27.56
  1288                11.47      8.21      3.26     11.47     43.43     27.03
  1289                12.12      5.95      6.17     12.12     43.78     27.64
  1290               391.71    387.13      4.57    391.71     44.35     41.16
  1291                 0.41      0.00      0.41      0.41     44.32     42.12
  1292                 2.47      0.00      2.47      2.47     43.58     27.22
  1293                 0.09      0.00      0.09      0.09     43.75     28.67
  1294                10.26      7.20      3.06     10.26     43.75     28.30
  1295                 1.05      0.00      1.05      1.05     44.23     41.81
  1296               156.86    155.88      0.98    156.86     43.96     41.76
  1297                 0.19      0.00      0.19      0.19     44.35     40.02
  1298                 0.20      0.00      0.20      0.20     44.32     41.96
  1299                29.57     24.81      4.76     29.57     44.32     41.91
  1300                18.58     13.51      5.08     18.58     45.38     43.30
  1301               254.22    251.72      2.50    254.22     45.08     42.73
  1302                33.64     31.89      1.75     33.64     45.36     43.29
  1303                40.43     38.85      1.58     40.43     45.39     43.31
  1304                 3.00      0.00      3.00      3.00     44.83     25.77
  1305                35.43     33.56      1.88     35.43     43.20     31.76
  1306                62.57     57.89      4.69     62.57     43.19     31.79
  1307                57.70     52.71      4.99     57.71     43.27     34.23
  1308                16.75     12.02      4.74     16.75     45.40     42.93
  1309                29.67     24.69      4.98     29.67     44.92     42.84
  1310                 1.01      0.00      1.01      1.01     44.95     42.44
  1311                46.62     45.28      1.34     46.62     44.91     42.78
  1312                21.72     20.41      1.31     21.72     44.91     42.80
  1313                 3.59      0.00      3.59      3.59     43.88     41.52
  1314                62.60     58.60      4.00     62.60     43.33     30.56
  1315                13.46     11.66      1.80     13.46     43.27     36.67
  1316                18.35     16.54      1.81     18.35     43.20     34.35
  1317                 2.11      0.00      2.11      2.11     43.27     27.38
  1318                56.39     54.44      1.96     56.39     43.27     27.59
  1319                24.21     22.61      1.60     24.21     43.27     34.20
  1320                52.37     48.85      3.53     52.37     43.31     30.79
  1321                29.99     28.14      1.85     29.99     43.27     27.26
  1322                81.25     79.77      1.48     81.25     45.72     43.36
  1323                16.49     15.17      1.32     16.49     43.63     41.33
  1324                 1.55      0.89      0.66      1.55     43.45     40.63
  1325                95.04     90.31      4.73     95.04     43.56     41.24
  1326                10.43      7.56      2.87     10.43     43.52     33.99
  1327               147.29    145.76      1.53    147.29     43.48     41.06
  1328                 5.09      2.08      3.01      5.09     43.50     41.06
  1329                 3.34      0.00      3.34      3.34     43.52     34.74
  1330                 7.37      6.13      1.25      7.38     43.52     34.94
  1331                69.86     68.24      1.62     69.86     43.30     39.41
  1332                 0.13      0.00      0.13      0.13     43.28     36.72
  1333                 8.55      7.26      1.29      8.55     43.28     36.81
  1334                26.26     24.33      1.92     26.26     43.28     36.41
  1335                84.78     79.90      4.88     84.78     43.33     40.78
  1336                38.20     34.57      3.64     38.20     43.33     36.66
  1337                87.63     83.00      4.63     87.63     43.33     40.00
  1338                90.36     88.11      2.25     90.36     43.27     36.24
  1339                93.55     89.24      4.31     93.55     43.80     41.62
  1340                95.03     91.56      3.47     95.03     43.76     41.57
  1341                 8.20      5.95      2.25      8.20     43.88     41.52
  1342                20.30     19.10      1.20     20.30     43.37     40.43
  1343                54.44     52.95      1.49     54.44     43.52     34.13
  1344                74.51     68.00      6.51     74.51     43.63     41.28
  1345                16.33     12.02      4.31     16.33     43.31     30.79
  1346                30.45     27.37      3.09     30.45     43.29     37.64
  1347                20.74     17.91      2.83     20.74     43.29     39.56
  1348                19.41     18.09      1.32     19.41     43.28     36.50
  1349                 4.91      4.11      0.81      4.91     43.28     36.72
  1350               109.68    105.84      3.84    109.68     43.33     27.71
  1351                 0.95      0.00      0.95      0.95     43.39     40.63
  1352               112.97    108.76      4.22    112.97     43.62     41.29
  1353               115.79    111.44      4.35    115.79     45.00     42.78
  1354               135.05    133.03      2.02    135.05     43.62     41.47
  1355               112.64    108.40      4.24    112.64     43.72     41.41
  1356                 2.82      0.00      2.82      2.82     43.44     40.26
  1357                 9.75      7.85      1.90      9.75     43.45     40.03
  1358                14.19     12.55      1.64     14.20     43.28     23.44
  1359                25.31     23.68      1.63     25.31     43.33     27.48
  1360                 5.36      3.81      1.55      5.36     43.42     29.52
  1361                21.62     20.59      1.04     21.62     43.42     30.45
  1362                 4.40      3.45      0.95      4.40     43.43     27.14
  1363                 7.83      6.19      1.64      7.83     43.42     40.49
  1364                16.09     12.26      3.83     16.09     43.44     31.59
  1365                12.14     11.66      0.48     12.14     43.44     40.43
  1366                22.69     19.93      2.76     22.69     43.43     30.62
  1367                 2.31      0.00      2.31      2.31     43.42     38.26
  1368                 2.05      0.00      2.05      2.05     43.93     41.68
  1369                 1.13      0.00      1.14      1.14     43.33     30.85
  1370                25.81     24.75      1.06     25.81     43.33     31.14
  1371                 9.04      7.73      1.30      9.04     43.33     40.09
  1372                48.10     46.76      1.34     48.10     43.30     39.66
  1373                20.61     19.34      1.28     20.61     43.29     40.05
  1374                 0.61      0.00      0.61      0.61     43.34     40.29
  1375                 1.65      0.00      1.65      1.65     48.25     45.44
  1376                 0.06      0.00      0.06      0.06     43.34     40.36
  1377                24.24     20.59      3.65     24.24     43.28     38.89
  1378                17.71     14.16      3.55     17.71     43.23     36.07
  1379                 4.72      1.25      3.47      4.72     45.30     43.07
  1380                 0.26      0.00      0.26      0.26     45.30     43.01
  1381                20.60     18.56      2.04     20.60     43.21     35.39
  1382                73.41     68.64      4.77     73.41     48.24     40.65
  1383                 0.29      0.00      0.29      0.29     43.27     23.41
  1384                 6.32      3.87      2.45      6.32     43.17     33.69
  1385               141.96    138.15      3.82    141.96     43.13     26.72
  1386                18.13     16.30      1.83     18.13     44.27     41.51
  1387                70.02     68.00      2.01     70.02     44.45     42.33
  1388                 0.04      0.00      0.04      0.04     43.20     23.85
  1389                21.50     19.81      1.69     21.50     43.20     23.76
  1390                 0.00      0.00      7.91      7.91     40.15     25.49
  1391                 5.44      0.00      5.44      5.44     44.90     33.86
  1392                 0.90      0.00      0.90      0.90     44.88     32.29
  1393                 5.24      0.00      5.24      5.24     45.19     42.77
  1394                11.31      8.48      2.83     11.31     47.99     41.40
  1395                 2.03      0.00      2.03      2.03     47.99     42.61
  1396                49.83     47.02      2.81     49.83     46.90     44.38
  1397                 4.23      0.43      3.80      4.23     44.72     42.33
  1398                56.63     54.10      2.53     56.63     44.70     41.25
  1399                 3.11      0.00      3.11      3.11     44.80     42.78
  1400                 3.26      2.90      0.36      3.26     48.51     45.01
  1401                13.06      7.55      5.52     13.06     48.51     45.82
  1402                48.84     43.87      4.97     48.84     48.25     45.18
  1403                 0.19      0.00      0.19      0.19     48.65     44.40
  1404                 3.90      0.00      3.90      3.90     48.65     44.36
  1405                 9.73      0.00      9.73      9.73     48.66     44.56
  1406                 0.35      0.00      0.35      0.35     48.66     44.52
  1407                 6.43      0.00      6.43      6.43     64.51     60.76
  1408               168.52    162.94      5.58    168.52     48.52     45.98
  1409                 2.54      0.00      2.54      2.54     48.65     42.76
  1410                 1.74      0.00      1.74      1.74     48.65     42.75
  1411                67.42     63.48      3.94     67.42     48.00     40.51
  1412                21.87     20.42      1.45     21.87     48.00     40.62
  1413                 1.85      0.00      1.85      1.85     44.24     41.83
  1414                17.82     15.59      2.24     17.83     43.13     27.71
  1415                58.17     56.28      1.88     58.17     43.14     24.40
  1416                10.78     10.77      0.01     10.78     43.14     24.40
  1417                 6.83      5.18      1.65      6.83     43.21     27.89
  1418                49.49     46.05      3.44     49.49     43.21     27.89
  1419                47.50     44.62      2.88     47.50     43.13     26.72
  1420                51.69     48.37      3.32     51.69     43.18     34.40
  1421                17.77     15.77      2.01     17.77     43.14     22.79
  1422                 0.60      0.00      0.60      0.60     43.14     22.54
  1423                18.47     16.66      1.81     18.47     43.15     22.19
  1424                30.10     28.26      1.84     30.10     43.14     22.05
  1425                 1.89      0.00      1.89      1.89     43.15     27.80
  1426                 5.71      3.69      2.02      5.71     43.14     24.96
  1427                66.94     63.06      3.88     66.94     43.22     24.18
  1428                14.55     11.54      3.01     14.55     43.21     27.72
  1429                23.78     20.94      2.84     23.78     43.27     27.26
  1430                 1.79      0.00      1.79      1.79     43.27     27.38
  1431                21.68     18.86      2.82     21.68     43.19     28.04
  1432                 4.97      3.33      1.64      4.97     43.21     27.77
  1433                55.25     51.94      3.31     55.25     43.19     28.04
  1434               112.79    109.65      3.14    112.79     43.19     34.19
  1435                31.72     27.61      4.12     31.72     43.19     30.46
  1436                37.14     32.90      4.24     37.14     43.18     32.67
  1437                 3.00      1.78      1.22      3.00     43.17     33.76
  1438                25.99     24.39      1.60     25.99     43.27     23.42
  1439                13.22     11.36      1.86     13.22     43.14     25.67
  1440                 5.37      3.99      1.38      5.37     43.14     28.22
  1441                 0.09      0.00      0.09      0.09     43.18     23.32
  1442                43.59     41.11      2.48     43.59     43.18     23.64
  1443                 9.87      7.20      2.67      9.87     43.19     23.66
  1444                34.69     29.99      4.71     34.69     43.15     29.71
  1445                50.32     45.61      4.72     50.32     43.15     31.63
  1446                72.85     70.74      2.12     72.86     43.13     28.93
  1447                11.28     10.71      0.58     11.28     43.16     33.41
  1448                 1.43      0.00      1.43      1.43     43.16     33.29
  1449                28.33     27.13      1.20     28.33     43.27     23.86
  1450                17.22     15.17      2.05     17.22     43.15     22.31
  1451                 0.11      0.00      0.11      0.11     43.15     22.31
  1452                 0.09      0.00      0.09      0.09     43.15     22.37
  1453                 0.13      0.00      0.13      0.13     43.14     24.89
  1454                20.62     18.80      1.82     20.62     43.14     26.25
  1455                10.33      6.78      3.55     10.33     43.14     25.16
  1456                 3.57      1.55      2.03      3.58     43.14     22.55
  1457                35.16     31.77      3.39     35.16     43.13     27.71
  1458                17.00     15.59      1.41     17.00     43.15     28.51
  1459                 0.43      0.00      0.43      0.43     48.65     43.13
  1460                29.37     27.03      2.34     29.37     48.47     40.74
  1461                 1.22      0.00      1.22      1.22     48.47     41.01
  1462                 0.37      0.00      0.37      0.37     48.65     43.09
  1463                17.70      8.87      8.83     17.70     48.65     43.22
  1464                 0.72      0.00      0.72      0.72     48.65     43.12
  1465                 1.12      0.00      1.12      1.12     48.65     42.07
  1466                 0.25      0.00      0.25      0.25     48.57     41.93
  1467                 0.63      0.00      0.63      0.63     47.99     42.61
[...]
  96                 971.48      4.80      0.36      1.32
  97                -510.55      3.18      0.19      0.40
  98                   6.89      1.32      0.02      0.02
  99                  12.20      1.78      0.03      0.05
  100               -175.20      2.18      0.26      1.61
  101                -57.76      2.67      0.15      0.84
  102                 -5.66      4.19      0.01      0.01
  103                -61.13      0.37      0.09      0.23
  104                -47.47      0.82      0.12      0.58
  105                 10.48      3.96      0.02      0.03
  106                 30.64      2.17      0.08      0.26
  107               -254.05      0.58      0.37      3.21
  108                 -2.06      2.46      0.08      1.10
  109               -133.60      4.03      0.20      0.98
  110                -66.60      0.69      0.10      0.27
  111                 25.54      2.12      0.04      0.05
  112                654.01      1.89      0.24      0.63
  113                 20.40      2.56      0.05      0.12
  114               -388.24      2.02      0.14      0.24
  115                663.64      0.37      0.24      0.65
  116                  0.00      0.00      0.00      0.00
  117                -37.26      2.47      0.01      0.00
  118                554.26      3.76      0.20      0.47
  119                  0.26      0.51      0.00      0.00
  120                  0.00      0.00      0.00      0.00
  121                488.98      1.12      0.18      0.37
  122               -496.49      0.11      0.18      0.38
  123                -14.51      0.75      0.04      0.07
  124               -174.79      0.44      0.26      1.61
  125                157.46      4.81      0.10      0.18
  126               -199.41      3.51      0.52      8.32
  127                 80.72      6.51      0.19      1.14
  128                 69.28      4.03      0.18      1.17
  129                 -0.04      0.09      0.00      0.00
  130                  0.00      0.00      0.00      0.00
  131               2456.42      0.77      0.30      0.48
  132              -2461.86     10.11      0.40      1.02
  133               2455.52      1.03      0.30      0.48
  134                 -0.03      0.07      0.00      0.00
  135                 12.88      2.23      0.02      0.01
  136               1549.83      2.81      1.02     12.68
  137                 58.89      4.61      0.09      0.21
  138                  3.20      6.00      0.00      0.00
  139                 -3.37      0.72      0.00      0.00
  140               -123.28      9.26      0.05      0.03
  141                 -0.19      0.38      0.00      0.00
  142               1304.81      0.38      0.08      0.03
  143               4018.32     18.92      0.24      0.21
  144                -16.72     10.30      0.02      0.02
  145                807.09      0.77      0.05      0.01
  146                 70.78      0.18      0.10      0.30
  147                 22.42      3.25      0.00      0.00
  148               -256.11      3.53      0.38      3.26
  149                -16.60      2.80      0.02      0.02
  150                 10.67      0.03      0.02      0.02
  151                -14.46      0.05      0.03      0.05
  152                -61.12      2.15      0.04      0.03
  153               -468.58      2.96      0.17      0.34
  154                 42.55      0.37      0.02      0.00
  155                139.07      2.02      0.05      0.04
  156                 12.50      1.91      0.03      0.05
  157                 22.32      2.48      0.05      0.11
  158                 87.29      3.52      0.13      0.44
  159                -88.68      3.53      0.13      0.46
  160                 48.72      3.23      0.07      0.15
  161                 49.22      3.23      0.07      0.15
  162                  6.18      2.70      0.01      0.01
  163                 12.42      2.69      0.03      0.04
  164                 10.38      2.25      0.02      0.03
  165                 30.22      3.16      0.04      0.06
  166                163.73      0.09      0.11      0.20
  167                497.02      0.21      0.18      0.38
  168                 41.03      0.03      0.09      0.32
  169                  5.32      2.76      0.01      0.01
  170                 25.23      3.30      0.06      0.13
  171                 -0.09      0.17      0.00      0.00
  172               -427.78      1.45      0.16      0.29
  173                  8.15      3.38      0.02      0.02
  174               -136.72      4.25      0.05      0.03
  175                -61.91      2.58      0.09      0.23
  176               -261.07      0.89      0.10      0.12
  177               -249.90      0.26      0.09      0.11
  178               -248.47      2.61      0.09      0.11
  179                -28.85      2.15      0.01      0.00
  180                 -0.82      0.25      0.00      0.00
  181                -13.62      2.39      0.03      0.04
  182                471.29      2.98      0.17      0.34
  183                359.73      0.98      0.13      0.21
  184                  0.11      0.23      0.00      0.00
  185                 34.75      3.55      0.05      0.08
  186                286.71      0.02      0.11      0.14
  187                  0.13      0.27      0.00      0.00
  188                -13.15      2.77      0.02      0.01
  189                  7.27      0.88      0.01      0.00
  190                 23.56      2.46      0.03      0.04
  191                 10.18      1.65      0.01      0.01
  192                 31.56      3.17      0.05      0.07
  193                -67.82      2.39      0.02      0.01
  194                -14.39      1.87      0.01      0.00
  195               -811.43      0.71      0.05      0.01
  196                  2.38      0.12      0.00      0.00
  197              -1088.12      0.52      0.06      0.02
  198              -1087.75      0.22      0.06      0.02
  199                725.63      0.15      1.07     22.42
  200                  3.32      0.12      0.00      0.00
  201                568.67      0.13      0.84     14.28
  202                156.72      0.22      0.23      1.31
  203               -476.19      0.11      0.18      0.35
  204                 16.19      0.12      0.01      0.00
  205               -121.06      0.12      0.18      0.81
  206               -117.56      0.35      0.17      0.77
  207               -203.59      0.15      0.08      0.07
  208                219.61      0.08      0.32      2.45
  209               4056.63      9.60      0.24      0.21
  210                  0.13      0.26      0.00      0.00
  211               -811.47      0.28      0.30      0.94
  212               1114.81      0.17      0.07      0.02
  213                 31.65      0.03      0.08      0.28
  214                 99.20      0.26      0.15      0.56
  215                  0.00      0.00      0.00      0.00
  216               -811.86      0.15      0.05      0.01
  217                 -3.42      6.78      0.01      0.00
  218                  7.29      0.14      0.02      0.02
  219                663.93      0.22      0.24      0.65
  220                632.76      1.50      0.23      0.59
  221                156.22      0.14      0.41      5.30
  222                631.92      0.16      0.23      0.59
  223                  0.39      0.03      0.00      0.00
  224               -435.90      0.02      0.64      8.72
  225                 93.64      0.15      0.14      0.51
  226                 -0.03      0.06      0.00      0.00
  227                  0.01      0.02      0.00      0.00
  228                 11.24      0.02      0.02      0.01
  229                -50.99      0.44      0.02      0.01
  230                 13.62      0.02      0.03      0.04
  231               -191.53      0.01      0.05      0.02
  232               -101.05      0.05      0.02      0.01
  233               -139.70      0.02      0.03      0.01
  234                 95.18      0.02      0.22      1.55
  235               -140.16      0.03      0.32      3.16
  236                108.43      0.02      0.04      0.03
  237                662.97      0.71      0.24      0.65
  238                615.54      1.08      0.23      0.56
  239                 -0.06      0.13      0.00      0.00
  240                 68.00      0.13      0.18      1.14
  241                 26.68      0.15      0.04      0.05
  242                  8.17      0.66      0.02      0.02
  243               -125.68      0.15      0.33      3.54
  244                125.15      0.12      0.18      0.87
  245                 96.49      0.03      0.02      0.01
  246               -274.65      0.12      0.06      0.04
  247               -535.60      0.09      0.20      0.44
  248               -257.95      0.17      0.38      3.30
  249               -217.37      0.15      0.57      9.76
  250                766.55      0.21      0.28      0.85
  251                766.36      0.19      0.28      0.85
  252                414.36      0.07      1.09     32.25
  253                 11.57      1.07      0.00      0.00
  254                155.30      3.23      0.23      1.29
  255                 26.03      8.97      0.04      0.05
  256                  2.14      4.27      0.00      0.00
  257                  1.16      2.32      0.00      0.00
  258                -66.81      1.06      0.02      0.01
  259                 26.78      4.19      0.01      0.00
  260               -116.79      0.98      0.17      0.76
  261                 -0.05      0.10      0.00      0.00
  262                 -0.06      0.12      0.00      0.00
  263                 48.19      1.56      0.02      0.01
  264               -119.33      3.19      0.18      0.79
  265                 -0.04      0.08      0.00      0.00
  266                 -0.04      0.08      0.00      0.00
  267                121.93      1.62      0.18      0.82
  268               -483.34     14.19      0.18      0.36
  269                 43.38      0.20      0.02      0.00
  270                 77.86      0.61      0.11      0.36
  271                  1.80      3.60      0.00      0.00
  272               -275.16      1.07      0.41      3.72
  273                 -0.36      0.71      0.00      0.00
  274                 -1.08      2.16      0.00      0.00
  275                259.98      2.73      0.38      3.35
  276                -47.27      0.28      0.02      0.01
  277                -37.69      3.04      0.01      0.00
  278                 23.27      1.41      0.03      0.04
  279                200.29      2.77      0.30      2.07
  280                724.15      0.04      0.04      0.01
  281                 35.60      1.10      0.05      0.08
  282                154.70      2.94      0.23      1.28
  283                -28.03      0.24      0.01      0.00
  284                 47.78      2.01      0.07      0.15
  285                805.36      2.70      0.05      0.01
  286                  3.64      7.16      0.01      0.01
  287                  0.04      0.09      0.00      0.00
  288                 -7.06      0.51      0.02      0.02
  289                -14.94      0.52      0.01      0.00
  290                -20.00      2.78      0.03      0.03
  291                 -6.69      1.86      0.01      0.00
  292                 34.53      2.78      0.05      0.08
  293                 25.70      0.08      0.04      0.05
  294                -14.49      3.59      0.02      0.02
  295                 73.31      0.88      0.03      0.01
  296                 41.95      0.83      0.03      0.02
  297                  3.79      2.28      0.00      0.00
  298                299.32      0.07      0.11      0.15
  299                109.26      1.66      0.04      0.02
  300               -129.35      1.59      0.08      0.13
  301                 12.52      0.09      0.03      0.04
  302                361.38      0.99      0.13      0.21
  303                382.71      2.31      0.14      0.23
  304                316.49      3.82      0.12      0.16
  305                -47.72      2.23      0.11      0.43
  306               1106.15     17.14      0.07      0.02
  307                 30.67      0.14      0.05      0.06
  308               -126.74      1.91      0.08      0.12
  309                  0.68      1.37      0.00      0.00
  310               4030.84      0.04      0.24      0.21
  311                  2.61      5.22      0.00      0.00
  312                 65.10      4.91      0.10      0.26
  313               -314.29      3.93      0.21      0.66
  314               -129.02      2.64      0.08      0.13
  315                  0.10      0.20      0.00      0.00
  316                  0.03      0.05      0.00      0.00
  317                 68.74      2.89      0.05      0.04
  318                  0.25      0.49      0.00      0.00
  319               1861.93      0.90      0.69      4.39
  320                 65.95      2.58      0.10      0.26
  321                 19.53      0.13      0.04      0.08
  322                 63.14      2.91      0.09      0.24
  323                  6.16      0.50      0.01      0.01
  324                -63.89      0.31      0.09      0.25
  325                  0.01      0.02      0.00      0.00
  326               -117.91      5.27      0.17      0.77
  327                  0.03      0.05      0.00      0.00
  328                  0.03      0.05      0.00      0.00
  329                  0.03      0.05      0.00      0.00
  330                 -0.03      0.06      0.00      0.00
  331                263.08      5.26      0.61     10.15
  332               -197.16      5.51      0.29      2.01
  333                123.97      5.47      0.18      0.85
  334                -17.79      4.10      0.03      0.02
  335                -35.62      2.45      0.05      0.08
  336               1842.14      2.89      0.68      4.30
  337                -41.17      0.37      0.06      0.11
  338               1563.67      2.66      0.58      3.18
  339               1498.23      2.80      0.98     11.91
  340               1405.14      1.24      0.92     10.58
  341               1108.97      0.46      0.73      6.82
  342               -160.75      4.69      0.42      5.58
  343               1024.71      2.50      0.67      5.90
  344                960.08      2.88      0.63      5.23
  345                -23.86      5.02      0.05      0.12
  346                  1.70      1.54      0.00      0.00
  347                 14.17      1.71      0.02      0.02
  348                -79.01      7.61      0.12      0.37
  349                  0.37      0.75      0.00      0.00
  350                -42.00      0.63      0.04      0.04
  351                -63.50      0.47      0.17      1.00
  352                604.46     16.11      0.22      0.55
  353                426.75      2.17      0.28      1.16
  354                525.80      1.85      0.34      1.71
  355                 -0.31      0.62      0.00      0.00
  356                469.28      1.55      0.31      1.39
  357                189.73      4.71      0.28      1.87
  358                123.36      3.81      0.18      0.84
  359                -26.22      4.74      0.04      0.05
  360                 46.48      6.67      0.07      0.14
  361               -189.65      0.15      0.28      1.87
  362               -189.50      0.14      0.28      1.86
  363               -191.40      0.85      0.28      1.90
  364                  0.22      0.44      0.00      0.00
  365                101.93      0.41      0.04      0.02
  366                 93.27      0.18      0.14      0.50
  367                 12.53     16.67      0.03      0.05
  368                -39.56      5.32      0.06      0.10
  369                185.41      7.28      0.27      1.79
  370               -448.19      0.19      0.66      9.19
  371                132.43      0.26      0.20      0.96
  372                  9.72      9.32      0.01      0.00
  373                  4.85      0.42      0.00      0.00
  374                 20.20      8.57      0.01      0.00
  375               -398.31      1.88      0.15      0.25
  376               -382.96      4.67      0.14      0.23
  377                 15.51      3.29      0.01      0.00
  378                 71.41      0.16      0.03      0.01
  379                 44.59      3.42      0.12      0.52
  380                -63.90      2.20      0.09      0.25
  381                 -5.31      8.05      0.13      2.13
  382                 21.06      2.57      0.06      0.13
  383               -404.70      2.52      0.15      0.26
  384               -438.73      3.06      0.16      0.30
  385                  0.05      0.10      0.00      0.00
  386                101.00      2.70      0.15      0.58
  387                 69.10      1.04      0.05      0.04
  388                 -5.71      0.11      0.01      0.00
  389                726.75      2.08      0.04      0.01
  390               -287.75      3.99      0.11      0.14
  391                732.16      4.45      0.04      0.01
  392               -294.81      5.74      0.11      0.14
  393               -204.11      0.90      0.08      0.07
  394                -29.24     28.09      0.01      0.00
  395                -13.95     27.91      0.04      0.06
  396                  8.68      1.96      0.02      0.03
  397                  0.00     15.82      0.00      0.00
  398                -43.33      3.10      0.01      0.00
  399                -79.27      2.71      0.12      0.37
  400               -125.23      1.12      0.33      3.52
  401                -85.06      2.48      0.13      0.42
  402               2306.36      1.89      0.38      0.91
  403               -582.45      0.37      0.21      0.51
  404                 16.56      0.11      0.04      0.08
  405               1257.00      0.12      0.46      2.12
  406               4069.32     15.43      0.24      0.22
  407               1283.51      0.09      0.47      2.20
  408               1283.71      0.33      0.47      2.20
  409                288.06      0.02      0.42      4.05
  410               -556.85      0.34      0.82     13.73
  411                202.44      4.25      0.30      2.11
  412               -220.57      0.10      0.33      2.47
  413                  0.04      0.07      0.00      0.00
  414               1872.42      3.37      0.69      4.43
  415               1282.96      4.82      0.47      2.20
  416                -64.79      6.07      0.17      1.04
  417               1869.25      2.98      0.69      4.42
  418                  3.69      5.26      0.01      0.00
  419               -173.77      0.67      0.06      0.05
  420               -102.17      0.08      0.04      0.02
  421                175.42      2.62      0.26      1.62
  422               -598.37      0.16      0.22      0.54
  423              -2703.78      0.15      1.00      8.76
  424              -2703.64      0.14      1.00      8.76
  425                100.97      1.52      0.23      1.72
  426                 -0.27      0.53      0.00      0.00
  427               -840.28      1.81      0.31      1.01
  428              -2467.10      0.37      0.40      1.03
  430               5656.29      0.11      0.93      4.77
  432               1881.34      2.78      0.69      4.47
  433               2106.22      1.61      0.78      5.51
  434               2111.18      4.82      0.35      0.77
  435               1442.84      2.17      0.53      2.74
  436               1616.11      2.73      0.60      3.38
  437               -135.18      2.25      0.20      1.00
  PRV_3       5656.23      0.00      2.08     19.10  PRV
  PRV_4       4027.78      0.00      2.64     15.75  PRV
   
  Sum of Leakage =    1047.67
   
  Average of Leakage =    1039.46
   
  Analysis ended Wed Aug 31 17:00:11 2011
